
     RDKit          3D

 17 16  0  0  0  0  0  0  0  0999 V2000
    2.5240   -0.2365    0.0516 C   0  0  0  0  0  0  0  0  0  0  0  0
    1.1358   -0.7448   -0.3035 C   0  0  0  0  0  0  0  0  0  0  0  0
    0.0563    0.2749    0.0586 C   0  0  0  0  0  0  0  0  0  0  0  0
   -1.3374   -0.2399   -0.3000 C   0  0  0  0  0  0  0  0  0  0  0  0
   -2.4144    0.7716    0.0586 C   0  0  0  0  0  0  0  0  0  0  0  0
    2.6066   -0.0386    1.1251 H   0  0  0  0  0  0  0  0  0  0  0  0
    2.7527    0.6885   -0.4872 H   0  0  0  0  0  0  0  0  0  0  0  0
    3.2802   -0.9812   -0.2157 H   0  0  0  0  0  0  0  0  0  0  0  0
    0.9513   -1.6866    0.2264 H   0  0  0  0  0  0  0  0  0  0  0  0
    1.0967   -0.9634   -1.3770 H   0  0  0  0  0  0  0  0  0  0  0  0
    0.1024    0.4934    1.1325 H   0  0  0  0  0  0  0  0  0  0  0  0
    0.2477    1.2164   -0.4707 H   0  0  0  0  0  0  0  0  0  0  0  0
   -1.3901   -0.4558   -1.3735 H   0  0  0  0  0  0  0  0  0  0  0  0
   -1.5354   -1.1789    0.2299 H   0  0  0  0  0  0  0  0  0  0  0  0
   -3.4027    0.3830   -0.2062 H   0  0  0  0  0  0  0  0  0  0  0  0
   -2.2638    1.7126   -0.4801 H   0  0  0  0  0  0  0  0  0  0  0  0
   -2.4099    0.9854    1.1322 H   0  0  0  0  0  0  0  0  0  0  0  0
  1  2  1  0
  2  3  1  0
  3  4  1  0
  4  5  1  0
  1  6  1  0
  1  7  1  0
  1  8  1  0
  2  9  1  0
  2 10  1  0
  3 11  1  0
  3 12  1  0
  4 13  1  0
  4 14  1  0
  5 15  1  0
  5 16  1  0
  5 17  1  0
M  END
>  <rank>  (1) 
1

>  <conformer_id>  (1) 
2

>  <mmff_status>  (1) 
0

>  <mmff_energy_kcal_mol>  (1) 
-5.271752448872535

>  <relative_energy_kcal_mol>  (1) 
0.0

>  <rmsd_to_lowest_angstrom>  (1) 
5.7824999102671854e-08

$$$$

     RDKit          3D

 17 16  0  0  0  0  0  0  0  0999 V2000
    2.5240   -0.2365    0.0516 C   0  0  0  0  0  0  0  0  0  0  0  0
    1.1358   -0.7448   -0.3035 C   0  0  0  0  0  0  0  0  0  0  0  0
    0.0563    0.2749    0.0586 C   0  0  0  0  0  0  0  0  0  0  0  0
   -1.3374   -0.2399   -0.3000 C   0  0  0  0  0  0  0  0  0  0  0  0
   -2.4144    0.7716    0.0586 C   0  0  0  0  0  0  0  0  0  0  0  0
    2.7527    0.6885   -0.4872 H   0  0  0  0  0  0  0  0  0  0  0  0
    3.2802   -0.9812   -0.2158 H   0  0  0  0  0  0  0  0  0  0  0  0
    2.6066   -0.0387    1.1251 H   0  0  0  0  0  0  0  0  0  0  0  0
    0.9513   -1.6866    0.2264 H   0  0  0  0  0  0  0  0  0  0  0  0
    1.0967   -0.9634   -1.3770 H   0  0  0  0  0  0  0  0  0  0  0  0
    0.2477    1.2164   -0.4707 H   0  0  0  0  0  0  0  0  0  0  0  0
    0.1024    0.4934    1.1325 H   0  0  0  0  0  0  0  0  0  0  0  0
   -1.5354   -1.1789    0.2299 H   0  0  0  0  0  0  0  0  0  0  0  0
   -1.3901   -0.4558   -1.3735 H   0  0  0  0  0  0  0  0  0  0  0  0
   -2.2638    1.7126   -0.4801 H   0  0  0  0  0  0  0  0  0  0  0  0
   -2.4099    0.9854    1.1322 H   0  0  0  0  0  0  0  0  0  0  0  0
   -3.4027    0.3830   -0.2062 H   0  0  0  0  0  0  0  0  0  0  0  0
  1  2  1  0
  2  3  1  0
  3  4  1  0
  4  5  1  0
  1  6  1  0
  1  7  1  0
  1  8  1  0
  2  9  1  0
  2 10  1  0
  3 11  1  0
  3 12  1  0
  4 13  1  0
  4 14  1  0
  5 15  1  0
  5 16  1  0
  5 17  1  0
M  END
>  <rank>  (2) 
2

>  <conformer_id>  (2) 
5

>  <mmff_status>  (2) 
0

>  <mmff_energy_kcal_mol>  (2) 
-5.271752440447017

>  <relative_energy_kcal_mol>  (2) 
8.425518061017101e-09

>  <rmsd_to_lowest_angstrom>  (2) 
9.60713243259122e-06

$$$$

     RDKit          3D

 17 16  0  0  0  0  0  0  0  0999 V2000
   -2.0465    0.6143   -0.6440 C   0  0  0  0  0  0  0  0  0  0  0  0
   -1.4450   -0.2711    0.4364 C   0  0  0  0  0  0  0  0  0  0  0  0
    0.0378    0.0035    0.6960 C   0  0  0  0  0  0  0  0  0  0  0  0
    0.9350   -0.3418   -0.4932 C   0  0  0  0  0  0  0  0  0  0  0  0
    2.4052   -0.1523   -0.1518 C   0  0  0  0  0  0  0  0  0  0  0  0
   -1.8904    1.6735   -0.4165 H   0  0  0  0  0  0  0  0  0  0  0  0
   -3.1248    0.4388   -0.7157 H   0  0  0  0  0  0  0  0  0  0  0  0
   -1.6114    0.4025   -1.6250 H   0  0  0  0  0  0  0  0  0  0  0  0
   -1.9970   -0.1052    1.3693 H   0  0  0  0  0  0  0  0  0  0  0  0
   -1.5881   -1.3240    0.1669 H   0  0  0  0  0  0  0  0  0  0  0  0
    0.3490   -0.5906    1.5643 H   0  0  0  0  0  0  0  0  0  0  0  0
    0.1743    1.0569    0.9695 H   0  0  0  0  0  0  0  0  0  0  0  0
    0.7680   -1.3816   -0.7968 H   0  0  0  0  0  0  0  0  0  0  0  0
    0.6903    0.2926   -1.3518 H   0  0  0  0  0  0  0  0  0  0  0  0
    3.0298   -0.4010   -1.0155 H   0  0  0  0  0  0  0  0  0  0  0  0
    2.6118    0.8853    0.1295 H   0  0  0  0  0  0  0  0  0  0  0  0
    2.7020   -0.7999    0.6794 H   0  0  0  0  0  0  0  0  0  0  0  0
  1  2  1  0
  2  3  1  0
  3  4  1  0
  4  5  1  0
  1  6  1  0
  1  7  1  0
  1  8  1  0
  2  9  1  0
  2 10  1  0
  3 11  1  0
  3 12  1  0
  4 13  1  0
  4 14  1  0
  5 15  1  0
  5 16  1  0
  5 17  1  0
M  END
>  <rank>  (3) 
3

>  <conformer_id>  (3) 
7

>  <mmff_status>  (3) 
0

>  <mmff_energy_kcal_mol>  (3) 
-4.441838202794177

>  <relative_energy_kcal_mol>  (3) 
0.8299142460783582

>  <rmsd_to_lowest_angstrom>  (3) 
1.1748202944754056

$$$$

     RDKit          3D

 17 16  0  0  0  0  0  0  0  0999 V2000
    2.1220   -0.2367   -0.6499 C   0  0  0  0  0  0  0  0  0  0  0  0
    1.2245   -0.8160    0.4326 C   0  0  0  0  0  0  0  0  0  0  0  0
   -0.0313    0.0176    0.6961 C   0  0  0  0  0  0  0  0  0  0  0  0
   -0.9953    0.0523   -0.4905 C   0  0  0  0  0  0  0  0  0  0  0  0
   -2.2727    0.8027   -0.1452 C   0  0  0  0  0  0  0  0  0  0  0  0
    1.6360   -0.2604   -1.6296 H   0  0  0  0  0  0  0  0  0  0  0  0
    2.3941    0.7989   -0.4225 H   0  0  0  0  0  0  0  0  0  0  0  0
    3.0450   -0.8207   -0.7244 H   0  0  0  0  0  0  0  0  0  0  0  0
    1.7999   -0.8802    1.3639 H   0  0  0  0  0  0  0  0  0  0  0  0
    0.9428   -1.8406    0.1633 H   0  0  0  0  0  0  0  0  0  0  0  0
   -0.5481   -0.4074    1.5655 H   0  0  0  0  0  0  0  0  0  0  0  0
    0.2568    1.0401    0.9693 H   0  0  0  0  0  0  0  0  0  0  0  0
   -0.5239    0.5405   -1.3501 H   0  0  0  0  0  0  0  0  0  0  0  0
   -1.2500   -0.9697   -0.7940 H   0  0  0  0  0  0  0  0  0  0  0  0
   -2.9472    0.8191   -1.0070 H   0  0  0  0  0  0  0  0  0  0  0  0
   -2.0553    1.8380    0.1362 H   0  0  0  0  0  0  0  0  0  0  0  0
   -2.7973    0.3227    0.6872 H   0  0  0  0  0  0  0  0  0  0  0  0
  1  2  1  0
  2  3  1  0
  3  4  1  0
  4  5  1  0
  1  6  1  0
  1  7  1  0
  1  8  1  0
  2  9  1  0
  2 10  1  0
  3 11  1  0
  3 12  1  0
  4 13  1  0
  4 14  1  0
  5 15  1  0
  5 16  1  0
  5 17  1  0
M  END
>  <rank>  (4) 
4

>  <conformer_id>  (4) 
4

>  <mmff_status>  (4) 
0

>  <mmff_energy_kcal_mol>  (4) 
-4.441838201186022

>  <relative_energy_kcal_mol>  (4) 
0.8299142476865127

>  <rmsd_to_lowest_angstrom>  (4) 
1.174817632967404

$$$$

     RDKit          3D

 17 16  0  0  0  0  0  0  0  0999 V2000
   -2.0465    0.6143   -0.6440 C   0  0  0  0  0  0  0  0  0  0  0  0
   -1.4450   -0.2711    0.4364 C   0  0  0  0  0  0  0  0  0  0  0  0
    0.0378    0.0035    0.6960 C   0  0  0  0  0  0  0  0  0  0  0  0
    0.9350   -0.3418   -0.4932 C   0  0  0  0  0  0  0  0  0  0  0  0
    2.4052   -0.1523   -0.1518 C   0  0  0  0  0  0  0  0  0  0  0  0
   -1.8904    1.6735   -0.4165 H   0  0  0  0  0  0  0  0  0  0  0  0
   -1.6114    0.4025   -1.6250 H   0  0  0  0  0  0  0  0  0  0  0  0
   -3.1248    0.4388   -0.7157 H   0  0  0  0  0  0  0  0  0  0  0  0
   -1.5881   -1.3240    0.1669 H   0  0  0  0  0  0  0  0  0  0  0  0
   -1.9970   -0.1052    1.3693 H   0  0  0  0  0  0  0  0  0  0  0  0
    0.1743    1.0569    0.9695 H   0  0  0  0  0  0  0  0  0  0  0  0
    0.3490   -0.5906    1.5643 H   0  0  0  0  0  0  0  0  0  0  0  0
    0.7680   -1.3816   -0.7968 H   0  0  0  0  0  0  0  0  0  0  0  0
    0.6903    0.2926   -1.3518 H   0  0  0  0  0  0  0  0  0  0  0  0
    2.7020   -0.7998    0.6794 H   0  0  0  0  0  0  0  0  0  0  0  0
    2.6118    0.8853    0.1295 H   0  0  0  0  0  0  0  0  0  0  0  0
    3.0298   -0.4010   -1.0155 H   0  0  0  0  0  0  0  0  0  0  0  0
  1  2  1  0
  2  3  1  0
  3  4  1  0
  4  5  1  0
  1  6  1  0
  1  7  1  0
  1  8  1  0
  2  9  1  0
  2 10  1  0
  3 11  1  0
  3 12  1  0
  4 13  1  0
  4 14  1  0
  5 15  1  0
  5 16  1  0
  5 17  1  0
M  END
>  <rank>  (5) 
5

>  <conformer_id>  (5) 
0

>  <mmff_status>  (5) 
0

>  <mmff_energy_kcal_mol>  (5) 
-4.441838200464931

>  <relative_energy_kcal_mol>  (5) 
0.8299142484076043

>  <rmsd_to_lowest_angstrom>  (5) 
1.1748166136111806

$$$$

     RDKit          3D

 17 16  0  0  0  0  0  0  0  0999 V2000
   -1.7120    0.8758   -0.5642 C   0  0  0  0  0  0  0  0  0  0  0  0
   -1.0466    0.3094    0.6802 C   0  0  0  0  0  0  0  0  0  0  0  0
   -0.2242   -0.9535    0.4130 C   0  0  0  0  0  0  0  0  0  0  0  0
    0.9329   -0.7930   -0.5760 C   0  0  0  0  0  0  0  0  0  0  0  0
    1.9713    0.2269   -0.1360 C   0  0  0  0  0  0  0  0  0  0  0  0
   -0.9731    1.2493   -1.2792 H   0  0  0  0  0  0  0  0  0  0  0  0
   -2.3634    1.7130   -0.2937 H   0  0  0  0  0  0  0  0  0  0  0  0
   -2.3246    0.1175   -1.0622 H   0  0  0  0  0  0  0  0  0  0  0  0
   -0.4225    1.0804    1.1450 H   0  0  0  0  0  0  0  0  0  0  0  0
   -1.8272    0.0630    1.4103 H   0  0  0  0  0  0  0  0  0  0  0  0
   -0.8923   -1.7398    0.0398 H   0  0  0  0  0  0  0  0  0  0  0  0
    0.1737   -1.3165    1.3689 H   0  0  0  0  0  0  0  0  0  0  0  0
    0.5532   -0.5246   -1.5679 H   0  0  0  0  0  0  0  0  0  0  0  0
    1.4268   -1.7660   -0.6878 H   0  0  0  0  0  0  0  0  0  0  0  0
    1.5584    1.2399   -0.1241 H   0  0  0  0  0  0  0  0  0  0  0  0
    2.8186    0.2231   -0.8292 H   0  0  0  0  0  0  0  0  0  0  0  0
    2.3510   -0.0049    0.8640 H   0  0  0  0  0  0  0  0  0  0  0  0
  1  2  1  0
  2  3  1  0
  3  4  1  0
  4  5  1  0
  1  6  1  0
  1  7  1  0
  1  8  1  0
  2  9  1  0
  2 10  1  0
  3 11  1  0
  3 12  1  0
  4 13  1  0
  4 14  1  0
  5 15  1  0
  5 16  1  0
  5 17  1  0
M  END
>  <rank>  (6) 
6

>  <conformer_id>  (6) 
3

>  <mmff_status>  (6) 
0

>  <mmff_energy_kcal_mol>  (6) 
-3.848581677988877

>  <relative_energy_kcal_mol>  (6) 
1.423170770883658

>  <rmsd_to_lowest_angstrom>  (6) 
1.601463798996691

$$$$

     RDKit          3D

 17 16  0  0  0  0  0  0  0  0999 V2000
   -1.8218    0.3297    0.6465 C   0  0  0  0  0  0  0  0  0  0  0  0
   -0.9410    0.8350   -0.4853 C   0  0  0  0  0  0  0  0  0  0  0  0
   -0.0844   -0.2583   -1.1286 C   0  0  0  0  0  0  0  0  0  0  0  0
    0.8981   -0.9660   -0.1924 C   0  0  0  0  0  0  0  0  0  0  0  0
    1.9194   -0.0310    0.4360 C   0  0  0  0  0  0  0  0  0  0  0  0
   -2.4803    1.1312    0.9963 H   0  0  0  0  0  0  0  0  0  0  0  0
   -1.2251   -0.0043    1.5004 H   0  0  0  0  0  0  0  0  0  0  0  0
   -2.4493   -0.5033    0.3144 H   0  0  0  0  0  0  0  0  0  0  0  0
   -1.5850    1.2676   -1.2606 H   0  0  0  0  0  0  0  0  0  0  0  0
   -0.3078    1.6511   -0.1203 H   0  0  0  0  0  0  0  0  0  0  0  0
   -0.7462   -1.0133   -1.5711 H   0  0  0  0  0  0  0  0  0  0  0  0
    0.4756    0.1855   -1.9612 H   0  0  0  0  0  0  0  0  0  0  0  0
    0.3570   -1.5005    0.5959 H   0  0  0  0  0  0  0  0  0  0  0  0
    1.4342   -1.7289   -0.7701 H   0  0  0  0  0  0  0  0  0  0  0  0
    2.6518   -0.6068    1.0110 H   0  0  0  0  0  0  0  0  0  0  0  0
    1.4455    0.6785    1.1206 H   0  0  0  0  0  0  0  0  0  0  0  0
    2.4593    0.5338   -0.3305 H   0  0  0  0  0  0  0  0  0  0  0  0
  1  2  1  0
  2  3  1  0
  3  4  1  0
  4  5  1  0
  1  6  1  0
  1  7  1  0
  1  8  1  0
  2  9  1  0
  2 10  1  0
  3 11  1  0
  3 12  1  0
  4 13  1  0
  4 14  1  0
  5 15  1  0
  5 16  1  0
  5 17  1  0
M  END
>  <rank>  (7) 
7

>  <conformer_id>  (7) 
6

>  <mmff_status>  (7) 
0

>  <mmff_energy_kcal_mol>  (7) 
-3.8485816776519997

>  <relative_energy_kcal_mol>  (7) 
1.4231707712205353

>  <rmsd_to_lowest_angstrom>  (7) 
1.6014640189798566

$$$$

     RDKit          3D

 17 16  0  0  0  0  0  0  0  0999 V2000
    1.7129    0.0545    0.6612 C   0  0  0  0  0  0  0  0  0  0  0  0
    1.2318   -0.7326   -0.5451 C   0  0  0  0  0  0  0  0  0  0  0  0
   -0.0769   -0.2229   -1.1556 C   0  0  0  0  0  0  0  0  0  0  0  0
   -1.2998   -0.3389   -0.2412 C   0  0  0  0  0  0  0  0  0  0  0  0
   -1.5970    0.9376    0.5323 C   0  0  0  0  0  0  0  0  0  0  0  0
    1.7564    1.1260    0.4434 H   0  0  0  0  0  0  0  0  0  0  0  0
    1.0610   -0.1044    1.5247 H   0  0  0  0  0  0  0  0  0  0  0  0
    2.7177   -0.2739    0.9465 H   0  0  0  0  0  0  0  0  0  0  0  0
    1.1248   -1.7883   -0.2686 H   0  0  0  0  0  0  0  0  0  0  0  0
    2.0085   -0.6900   -1.3184 H   0  0  0  0  0  0  0  0  0  0  0  0
   -0.2687   -0.8306   -2.0494 H   0  0  0  0  0  0  0  0  0  0  0  0
    0.0481    0.8081   -1.5075 H   0  0  0  0  0  0  0  0  0  0  0  0
   -1.1910   -1.1817    0.4506 H   0  0  0  0  0  0  0  0  0  0  0  0
   -2.1764   -0.5560   -0.8642 H   0  0  0  0  0  0  0  0  0  0  0  0
   -0.7826    1.2084    1.2077 H   0  0  0  0  0  0  0  0  0  0  0  0
   -2.5017    0.8082    1.1351 H   0  0  0  0  0  0  0  0  0  0  0  0
   -1.7670    1.7765   -0.1504 H   0  0  0  0  0  0  0  0  0  0  0  0
  1  2  1  0
  2  3  1  0
  3  4  1  0
  4  5  1  0
  1  6  1  0
  1  7  1  0
  1  8  1  0
  2  9  1  0
  2 10  1  0
  3 11  1  0
  3 12  1  0
  4 13  1  0
  4 14  1  0
  5 15  1  0
  5 16  1  0
  5 17  1  0
M  END
>  <rank>  (8) 
8

>  <conformer_id>  (8) 
1

>  <mmff_status>  (8) 
0

>  <mmff_energy_kcal_mol>  (8) 
-1.5717219053722906

>  <relative_energy_kcal_mol>  (8) 
3.7000305435002443

>  <rmsd_to_lowest_angstrom>  (8) 
1.3726044019207368

$$$$
