
     RDKit          3D

 10  9  0  0  0  0  0  0  0  0999 V2000
    1.2843    0.1408   -0.0189 C   0  0  0  0  0  0  0  0  0  0  0  0
   -0.0551   -0.1589    0.5980 C   0  0  0  0  0  0  0  0  0  0  0  0
   -0.1641   -0.4736    1.7821 O   0  0  0  0  0  0  0  0  0  0  0  0
   -1.2545   -0.0548   -0.3047 C   0  0  0  0  0  0  0  0  0  0  0  0
    1.4767   -0.5600   -0.8351 H   0  0  0  0  0  0  0  0  0  0  0  0
    1.2938    1.1675   -0.3929 H   0  0  0  0  0  0  0  0  0  0  0  0
    2.0699    0.0313    0.7338 H   0  0  0  0  0  0  0  0  0  0  0  0
   -2.1612   -0.2947    0.2576 H   0  0  0  0  0  0  0  0  0  0  0  0
   -1.1535   -0.7626   -1.1311 H   0  0  0  0  0  0  0  0  0  0  0  0
   -1.3363    0.9649   -0.6889 H   0  0  0  0  0  0  0  0  0  0  0  0
  1  2  1  0
  2  3  2  0
  2  4  1  0
  1  5  1  0
  1  6  1  0
  1  7  1  0
  4  8  1  0
  4  9  1  0
  4 10  1  0
M  END
